test/TEST190523/v_h10.csv
Bus, BasekV, Node1, Magnitude1, Angle1, pu1, Node2, Magnitude2, Angle2, pu2, Node3, Magnitude3, Angle3, pu3
"SOURCEBUS", 69, 1,    41807.3,    0.0,    1.0495, 2,    41828.4, -120.1,      1.05, 3,    41792.5,  119.9,    1.0491
"BUSMVMAI1", 12.8, 1,    7748.98,  -30.2,    1.0486, 2,     7756.2, -150.1,    1.0495, 3,    7743.03,   89.6,    1.0478
"BUSMVMAI136", 12.505, 1,       7749,  -30.2,    1.0733, 2,     7756.2, -150.1,    1.0743, 3,    7742.95,   89.6,    1.0724
"BUSMVMAI3", 12.505, 1,    7766.38,  -30.5,    1.0757, 2,     7751.5, -149.8,    1.0736, 3,    7676.78,   89.2,    1.0633
"BUSMVMAI2", 12.505, 1,    7766.43,  -30.5,    1.0757, 2,    7751.49, -149.8,    1.0736, 3,     7676.6,   89.2,    1.0632
"BUSMVMAI4", 12.505, 1,    7766.93,  -30.6,    1.0758, 2,    7751.36, -149.8,    1.0736, 3,    7674.73,   89.1,     1.063
"BUSMVMAI46", 12.505, 1,    7766.36,  -30.5,    1.0757, 2,    7751.51, -149.8,    1.0736, 3,    7676.86,   89.2,    1.0633
"BUSMVMAI5", 12.505, 1,    7767.13,  -30.6,    1.0758, 2,       7751, -149.8,    1.0735, 3,    7672.75,   89.1,    1.0627
"BUSMVMAI862", 12.505, 1,    7766.92,  -30.6,    1.0758, 0, 0, 0, 0, 0, 0, 0, 0
"BUSMVMAI6", 12.505, 1,    7767.16,  -30.6,    1.0758, 2,    7750.93, -149.8,    1.0735, 3,    7672.39,   89.1,    1.0627
"BUSMVMAI859", 12.505, 3,    7672.72,   89.1,    1.0627, 0, 0, 0, 0, 0, 0, 0, 0
"BUSMVMAI860", 12.505, 3,    7672.75,   89.1,    1.0627, 0, 0, 0, 0, 0, 0, 0, 0
"BUSMVMAI7", 12.505, 1,    7767.08,  -30.6,    1.0758, 2,    7750.72, -149.8,    1.0735, 3,    7671.17,   89.1,    1.0625
"BUSMVMAI8", 12.505, 1,    7768.21,  -30.6,    1.0759, 2,    7750.01, -149.7,    1.0734, 3,    7669.72,   89.1,    1.0623
"BUSMVMAI9", 12.505, 1,    7767.08,  -30.6,    1.0758, 2,    7750.72, -149.8,    1.0735, 3,    7671.17,   89.1,    1.0625
"BUSMVMAI10", 12.505, 1,    7766.58,  -30.6,    1.0757, 2,     7750.8, -149.8,    1.0735, 3,    7670.82,   89.1,    1.0624
"BUSMVMAI56", 12.505, 1,    7766.83,  -30.6,    1.0757, 2,    7750.76, -149.8,    1.0735, 3,       7671,   89.1,    1.0625
"BUSMVMAI861", 12.505, 3,    7672.64,   89.1,    1.0627, 0, 0, 0, 0, 0, 0, 0, 0
"BUSMVMAI12", 12.505, 1,    7769.14,  -30.6,    1.0761, 2,    7749.42, -149.7,    1.0733, 3,    7668.53,   89.1,    1.0621
"BUSMVMAI51", 12.505, 1,    7768.21,  -30.6,    1.0759, 2,    7750.01, -149.7,    1.0734, 3,    7669.72,   89.1,    1.0623
"BUSMVMAI2171", 12.505, 1,    7768.22,  -30.6,    1.0759, 0, 0, 0, 0, 0, 0, 0, 0
"BUSMVMAI863", 12.505, 3,    7672.59,   89.1,    1.0627, 0, 0, 0, 0, 0, 0, 0, 0
"BUSMVMAI2165", 12.505, 3,    7671.17,   89.1,    1.0625, 0, 0, 0, 0, 0, 0, 0, 0
"BUSMVMAI694", 12.505, 1,    7767.08,  -30.6,    1.0758, 2,    7750.73, -149.8,    1.0735, 3,    7671.17,   89.1,    1.0625
"BUSMVMAI122", 12.505, 1,    7766.55,  -30.6,    1.0757, 2,     7750.8, -149.8,    1.0735, 3,    7670.81,   89.1,    1.0624
"BUSMVMAI11", 12.505, 1,    7769.13,  -30.6,    1.0761, 2,    7749.42, -149.7,    1.0733, 3,    7668.54,   89.1,    1.0621
"BUSMVMAI13", 12.505, 1,    7769.12,  -30.6,    1.0761, 2,     7749.4, -149.7,    1.0733, 3,    7668.56,   89.1,    1.0621
"BUSMVMAI18", 12.505, 1,    7769.49,  -30.6,    1.0761, 2,    7749.22, -149.7,    1.0733, 3,    7668.07,   89.1,    1.0621
"BUSMVMAI14", 12.505, 1,     7769.1,  -30.6,    1.0761, 2,    7749.36, -149.7,    1.0733, 3,    7668.61,   89.1,    1.0621
"BUSMVMAI15", 12.505, 1,    7769.07,  -30.6,     1.076, 2,    7749.32, -149.7,    1.0733, 3,    7668.66,   89.1,    1.0621
"BUSMVMAI16", 12.505, 1,    7769.05,  -30.6,     1.076, 2,    7749.33, -149.7,    1.0733, 3,    7668.69,   89.1,    1.0621
"BUSMVMAI2166", 12.505, 2,    7749.31, -149.7,    1.0733, 0, 0, 0, 0, 0, 0, 0, 0
"BUSMVMAI2172", 12.505, 1,    7766.92,  -30.6,    1.0758, 0, 0, 0, 0, 0, 0, 0, 0
"BUSMVMAI864", 12.505, 3,    7672.55,   89.1,    1.0627, 0, 0, 0, 0, 0, 0, 0, 0
"BUSMVMAI865", 12.505, 3,    7672.48,   89.1,    1.0627, 0, 0, 0, 0, 0, 0, 0, 0
"BUSMVMAI17", 12.505, 1,    7769.05,  -30.6,     1.076, 2,    7749.33, -149.7,    1.0733, 3,    7668.69,   89.1,    1.0621
"BUSMVMAI695", 12.505, 1,    7769.05,  -30.6,     1.076, 2,    7749.33, -149.7,    1.0733, 3,     7668.7,   89.1,    1.0621
"BUSMVMAI866", 12.505, 3,    7672.48,   89.1,    1.0627, 0, 0, 0, 0, 0, 0, 0, 0
"BUSMVMAI2176", 12.505, 3,    7672.48,   89.1,    1.0627, 0, 0, 0, 0, 0, 0, 0, 0
"BUSMVMAI2177", 12.505, 3,    7672.47,   89.1,    1.0627, 0, 0, 0, 0, 0, 0, 0, 0
"BUSMVMAI2178", 12.505, 3,    7672.44,   89.1,    1.0627, 0, 0, 0, 0, 0, 0, 0, 0
"BUSMVMAI19", 12.505, 1,    7770.16,  -30.6,    1.0762, 2,    7748.83, -149.7,    1.0732, 3,    7667.25,   89.1,    1.0619
"BUSMVMAI20", 12.505, 1,    7771.09,  -30.6,    1.0763, 2,    7748.29, -149.7,    1.0732, 3,    7666.09,   89.1,    1.0618
"BUSMVMAI53", 12.505, 1,    7770.16,  -30.6,    1.0762, 2,    7748.83, -149.7,    1.0732, 3,    7667.25,   89.1,    1.0619
"BUSMVMAI21", 12.505, 1,    7772.07,  -30.6,    1.0765, 2,    7747.72, -149.7,    1.0731, 3,    7664.87,   89.1,    1.0616
"BUSMVMAI22", 12.505, 1,    7773.22,  -30.6,    1.0766, 2,    7747.05, -149.7,     1.073, 3,    7663.45,   89.1,    1.0614
"BUSMVMAI23", 12.505, 1,    7772.08,  -30.6,    1.0765, 2,    7747.72, -149.7,    1.0731, 3,    7664.87,   89.1,    1.0616
"BUSMVMAI25", 12.505, 1,    7774.45,  -30.6,    1.0768, 2,    7746.32, -149.7,    1.0729, 3,    7661.97,   89.0,    1.0612
"BUSMVMAI52", 12.505, 1,    7773.22,  -30.6,    1.0766, 2,    7747.05, -149.7,     1.073, 3,    7663.45,   89.1,    1.0614
"BUSMVMAI54", 12.505, 1,    7773.22,  -30.6,    1.0766, 2,    7747.05, -149.7,     1.073, 3,    7663.45,   89.1,    1.0614
"BUSMVMAI55", 12.505, 1,    7773.22,  -30.6,    1.0766, 2,    7747.05, -149.7,     1.073, 3,    7663.45,   89.1,    1.0614
"BUSMVMAI696", 12.505, 1,    7772.07,  -30.6,    1.0765, 2,    7747.72, -149.7,    1.0731, 3,    7664.86,   89.1,    1.0616
"BUSMVMAI24", 12.505, 1,    7774.57,  -30.6,    1.0768, 2,    7746.24, -149.7,    1.0729, 3,    7661.83,   89.0,    1.0612
"BUSMVMAI26", 12.505, 1,    7775.79,  -30.6,     1.077, 2,    7745.52, -149.7,    1.0728, 3,    7660.35,   89.0,     1.061
"BUSMVMAI49", 12.505, 1,    7774.45,  -30.6,    1.0768, 2,    7746.32, -149.7,    1.0729, 3,    7661.97,   89.0,    1.0612
"BUSMVMAI50", 12.505, 1,    7774.45,  -30.6,    1.0768, 2,    7746.32, -149.7,    1.0729, 3,    7661.97,   89.0,    1.0612
"BUSMVMAI27", 12.505, 1,    7775.77,  -30.6,     1.077, 2,    7745.52, -149.7,    1.0728, 3,    7660.34,   89.0,     1.061
"BUSMVMAI28", 12.505, 1,    7776.73,  -30.6,    1.0771, 2,    7744.95, -149.7,    1.0727, 3,    7659.23,   89.0,    1.0608
"BUSMVMAI29", 12.505, 1,    7775.76,  -30.6,     1.077, 2,    7745.53, -149.7,    1.0728, 3,    7660.33,   89.0,     1.061
"BUSMVMAI31", 12.505, 1,    7777.82,  -30.6,    1.0773, 2,    7744.29, -149.7,    1.0726, 3,    7657.93,   89.0,    1.0607
"BUSMVMAI30", 12.505, 1,    7775.74,  -30.6,     1.077, 2,    7745.54, -149.7,    1.0728, 3,    7660.32,   89.0,     1.061
"BUSMVMAI34", 12.505, 1,    7775.72,  -30.6,     1.077, 2,    7745.55, -149.7,    1.0728, 3,    7660.31,   89.0,     1.061
"BUSMVMAI867", 12.505, 1,    7777.79,  -30.6,    1.0773, 0, 0, 0, 0, 0, 0, 0, 0
"BUSMVMAI43", 12.505, 1,    7777.85,  -30.6,    1.0773, 2,    7744.28, -149.7,    1.0726, 3,     7657.9,   89.0,    1.0607
"BUSMVMAI871", 12.505, 2,    7744.29, -149.7,    1.0726, 0, 0, 0, 0, 0, 0, 0, 0
"BUSMVMAI33", 12.505, 1,    7778.17,  -30.6,    1.0773, 2,    7744.08, -149.7,    1.0726, 3,    7657.54,   89.0,    1.0606
"BUSMVMAI32", 12.505, 1,    7779.11,  -30.6,    1.0774, 2,    7743.51, -149.7,    1.0725, 3,    7656.45,   89.0,    1.0604
"BUSMVMAI37", 12.505, 1,    7780.38,  -30.6,    1.0776, 2,    7742.74, -149.6,    1.0724, 3,    7654.99,   89.0,    1.0602
"BUSMVMAI44", 12.505, 1,    7777.87,  -30.6,    1.0773, 2,    7744.26, -149.7,    1.0726, 3,    7657.87,   89.0,    1.0606
"BUSMVMAI35", 12.505, 1,    7775.72,  -30.6,     1.077, 2,    7745.56, -149.7,    1.0728, 3,    7660.31,   89.0,     1.061
"BUSMVMAI36", 12.505, 1,    7775.73,  -30.6,     1.077, 2,    7745.56, -149.7,    1.0728, 3,     7660.3,   89.0,     1.061
"BUSMVMAI869", 12.505, 1,    7777.78,  -30.6,    1.0773, 0, 0, 0, 0, 0, 0, 0, 0
"BUSMVMAI38", 12.505, 1,    7781.38,  -30.6,    1.0778, 2,    7742.12, -149.6,    1.0723, 3,    7653.84,   89.0,    1.0601
"BUSMVMAI2181", 12.505, 1,    7780.37,  -30.6,    1.0776, 0, 0, 0, 0, 0, 0, 0, 0
"BUSMVMAI868", 12.505, 1,    7777.72,  -30.6,    1.0772, 0, 0, 0, 0, 0, 0, 0, 0
"BUSMVMAI870", 12.505, 1,    7777.66,  -30.6,    1.0772, 0, 0, 0, 0, 0, 0, 0, 0
"BUSMVMAI39", 12.505, 1,     7781.4,  -30.6,    1.0778, 2,    7742.11, -149.6,    1.0723, 3,     7653.8,   89.0,    1.0601
"BUSMVMAI40", 12.505, 1,    7782.34,  -30.6,    1.0779, 2,    7741.54, -149.6,    1.0722, 3,    7652.74,   89.0,    1.0599
"BUSMVMAI697", 12.505, 1,    7781.43,  -30.6,    1.0778, 2,    7742.12, -149.6,    1.0723, 3,    7653.67,   89.0,    1.0601
"BUSMVMAI41", 12.505, 1,    7783.46,  -30.6,     1.078, 2,    7740.87, -149.6,    1.0721, 3,    7651.45,   89.0,    1.0598
"BUSMVMAI42", 12.505, 1,     7783.5,  -30.6,     1.078, 2,    7740.85, -149.6,    1.0721, 3,    7651.41,   89.0,    1.0598
"BUSMVMAI48", 12.505, 1,    7784.36,  -30.6,    1.0782, 2,    7740.34, -149.6,    1.0721, 3,    7650.42,   88.9,    1.0596
"BUSMVMAI303", 12.505, 1,    7783.91,  -30.6,    1.0781, 2,    7740.61, -149.6,    1.0721, 3,    7650.94,   88.9,    1.0597
"BUSMVMAI45", 12.505, 1,    7783.51,  -30.6,     1.078, 2,    7740.84, -149.6,    1.0721, 3,    7651.39,   89.0,    1.0597
"BUSMVMAI701", 12.505, 1,    7783.51,  -30.6,     1.078, 2,    7740.85, -149.6,    1.0721, 3,    7651.36,   89.0,    1.0597
"BUSMVMAI47", 12.505, 1,    7766.14,  -30.5,    1.0756, 2,    7751.57, -149.8,    1.0736, 3,    7677.68,   89.2,    1.0634
"BUSMVMAI179", 12.505, 1,    7766.25,  -30.5,    1.0757, 2,    7751.54, -149.8,    1.0736, 3,    7677.27,   89.2,    1.0633
"BUSMVMAI160", 12.505, 1,    7765.62,  -30.5,    1.0756, 2,     7751.7, -149.8,    1.0736, 3,    7679.65,   89.2,    1.0637
"BUSMVMAI1103", 12.505, 1,     7784.3,  -30.6,    1.0782, 0, 0, 0, 0, 0, 0, 0, 0
"BUSMVMAI259", 12.505, 1,    7784.83,  -30.6,    1.0782, 2,    7740.04, -149.6,     1.072, 3,    7649.94,   88.9,    1.0595
"BUSMVMAI304", 12.505, 1,    7784.36,  -30.6,    1.0782, 2,    7740.34, -149.6,    1.0721, 3,    7650.42,   88.9,    1.0596
"BUSMVMAI702", 12.505, 1,    7774.45,  -30.6,    1.0768, 2,    7746.32, -149.7,    1.0729, 3,    7661.97,   89.0,    1.0612
"BUSMVMAI58", 12.505, 1,    7766.22,  -30.6,    1.0757, 2,    7750.85, -149.8,    1.0735, 3,    7670.58,   89.1,    1.0624
"BUSMVMAI57", 12.505, 1,    7765.03,  -30.6,    1.0755, 2,    7751.03, -149.8,    1.0735, 3,    7669.77,   89.1,    1.0623
"BUSMVMAI60", 12.505, 1,    7764.53,  -30.6,    1.0754, 2,     7751.1, -149.8,    1.0736, 3,    7669.43,   89.1,    1.0622
"BUSMVMAI703", 12.505, 1,    7765.03,  -30.6,    1.0755, 2,    7751.03, -149.8,    1.0735, 3,    7669.76,   89.1,    1.0623
"BUSMVMAI123", 12.505, 1,    7766.52,  -30.6,    1.0757, 2,    7750.81, -149.8,    1.0735, 3,    7670.79,   89.1,    1.0624
"BUSMVMAI59", 12.505, 1,    7763.82,  -30.6,    1.0753, 2,    7751.22, -149.8,    1.0736, 3,    7669.07,   89.1,    1.0622
"BUSMVMAI61", 12.505, 1,    7762.65,  -30.6,    1.0752, 2,    7751.42, -149.8,    1.0736, 3,    7668.47,   89.1,    1.0621
"BUSMVMAI63", 12.505, 1,    7764.56,  -30.6,    1.0754, 2,    7751.08, -149.8,    1.0736, 3,    7669.38,   89.1,    1.0622
"BUSMVMAI874", 12.505, 3,    7669.43,   89.1,    1.0622, 0, 0, 0, 0, 0, 0, 0, 0
"BUSMVMAI62", 12.505, 1,    7761.54,  -30.6,     1.075, 2,    7751.54, -149.8,    1.0736, 3,    7667.88,   89.1,     1.062
"BUSMVMAI64", 12.505, 1,    7760.33,  -30.6,    1.0748, 2,    7751.71, -149.8,    1.0736, 3,    7667.47,   89.1,     1.062
"BUSMVMAI942", 12.505, 3,    7667.88,   89.1,     1.062, 0, 0, 0, 0, 0, 0, 0, 0
"BUSMVMAI873", 12.505, 3,    7667.87,   89.1,     1.062, 0, 0, 0, 0, 0, 0, 0, 0
"BUSMVMAI872", 12.505, 3,    7667.61,   89.1,     1.062, 0, 0, 0, 0, 0, 0, 0, 0
"BUSMVMAI880", 12.505, 3,     7667.6,   89.1,     1.062, 0, 0, 0, 0, 0, 0, 0, 0
"BUSMVMAI945", 12.505, 3,    7669.37,   89.1,    1.0622, 0, 0, 0, 0, 0, 0, 0, 0
"BUSMVMAI65", 12.505, 1,    7759.08,  -30.6,    1.0747, 2,    7751.84, -149.8,    1.0737, 3,    7667.01,   89.1,    1.0619
"BUSMVMAI66", 12.505, 1,    7757.82,  -30.6,    1.0745, 2,    7751.98, -149.8,    1.0737, 3,    7666.55,   89.1,    1.0618
"BUSMVMAI67", 12.505, 1,    7756.46,  -30.6,    1.0743, 2,    7752.12, -149.8,    1.0737, 3,    7666.06,   89.1,    1.0618
"BUSMVMAI878", 12.505, 1,    7756.43,  -30.6,    1.0743, 0, 0, 0, 0, 0, 0, 0, 0
"BUSMVMAI68", 12.505, 1,    7755.43,  -30.6,    1.0742, 2,    7752.23, -149.8,    1.0737, 3,    7665.69,   89.1,    1.0617
"BUSMVMAI706", 12.505, 1,    7756.46,  -30.6,    1.0743, 2,    7752.12, -149.8,    1.0737, 3,    7666.05,   89.1,    1.0618
"BUSMVMAI876", 12.505, 3,    7669.36,   89.1,    1.0622, 0, 0, 0, 0, 0, 0, 0, 0
"BUSMVMAI875", 12.505, 3,    7669.17,   89.1,    1.0622, 0, 0, 0, 0, 0, 0, 0, 0
"BUSMVMAI877", 12.505, 3,    7669.11,   89.1,    1.0622, 0, 0, 0, 0, 0, 0, 0, 0
"BUSMVMAI883", 12.505, 3,    7668.94,   89.1,    1.0622, 0, 0, 0, 0, 0, 0, 0, 0
"BUSMVMAI884", 12.505, 3,     7669.1,   89.1,    1.0622, 0, 0, 0, 0, 0, 0, 0, 0
"BUSMVMAI886", 12.505, 3,    7669.11,   89.1,    1.0622, 0, 0, 0, 0, 0, 0, 0, 0
"BUSMVMAI885", 12.505, 1,    7756.36,  -30.6,    1.0743, 0, 0, 0, 0, 0, 0, 0, 0
"BUSMVMAI879", 12.505, 3,    7667.23,   89.1,    1.0619, 0, 0, 0, 0, 0, 0, 0, 0
"BUSMVMAI881", 12.505, 3,    7667.24,   89.1,    1.0619, 0, 0, 0, 0, 0, 0, 0, 0
"BUSMVMAI888", 12.505, 3,    7667.18,   89.1,    1.0619, 0, 0, 0, 0, 0, 0, 0, 0
"BUSMVMAI882", 12.505, 3,    7667.24,   89.1,    1.0619, 0, 0, 0, 0, 0, 0, 0, 0
"BUSMVMAI944", 12.505, 3,    7667.24,   89.1,    1.0619, 0, 0, 0, 0, 0, 0, 0, 0
"BUSMVMAI889", 12.505, 3,     7668.8,   89.1,    1.0622, 0, 0, 0, 0, 0, 0, 0, 0
"BUSMVMAI2183", 12.505, 3,     7669.1,   89.1,    1.0622, 0, 0, 0, 0, 0, 0, 0, 0
"BUSMVMAI2184", 12.505, 3,     7669.1,   89.1,    1.0622, 0, 0, 0, 0, 0, 0, 0, 0
"BUSMVMAI71", 12.505, 1,    7754.45,  -30.6,     1.074, 2,     7752.3, -149.8,    1.0737, 3,    7665.33,   89.1,    1.0617
"BUSMVMAI2182", 12.505, 1,    7756.36,  -30.6,    1.0743, 0, 0, 0, 0, 0, 0, 0, 0
"BUSMVMAI2185", 12.505, 1,    7756.37,  -30.6,    1.0743, 0, 0, 0, 0, 0, 0, 0, 0
"BUSMVMAI2186", 12.505, 1,    7756.31,  -30.6,    1.0743, 0, 0, 0, 0, 0, 0, 0, 0
"BUSMVMAI887", 12.505, 3,    7669.12,   89.1,    1.0622, 0, 0, 0, 0, 0, 0, 0, 0
"BUSMVMAI892", 12.505, 3,    7669.13,   89.1,    1.0622, 0, 0, 0, 0, 0, 0, 0, 0
"BUSMVMAI897", 12.505, 3,    7667.11,   89.1,    1.0619, 0, 0, 0, 0, 0, 0, 0, 0
"BUSMVMAI890", 12.505, 3,    7668.68,   89.1,    1.0621, 0, 0, 0, 0, 0, 0, 0, 0
"BUSMVMAI891", 12.505, 3,    7668.61,   89.1,    1.0621, 0, 0, 0, 0, 0, 0, 0, 0
"BUSMVMAI896", 12.505, 3,    7668.58,   89.1,    1.0621, 0, 0, 0, 0, 0, 0, 0, 0
"BUSMVMAI893", 12.505, 3,    7669.13,   89.1,    1.0622, 0, 0, 0, 0, 0, 0, 0, 0
"BUSMVMAI894", 12.505, 3,    7669.14,   89.1,    1.0622, 0, 0, 0, 0, 0, 0, 0, 0
"BUSMVMAI895", 12.505, 3,    7669.13,   89.1,    1.0622, 0, 0, 0, 0, 0, 0, 0, 0
"BUSMVMAI898", 12.505, 3,    7669.13,   89.1,    1.0622, 0, 0, 0, 0, 0, 0, 0, 0
"BUSMVMAI70", 12.505, 1,    7756.47,  -30.6,    1.0743, 2,    7752.13, -149.8,    1.0737, 3,    7666.01,   89.1,    1.0618
"BUSMVMAI69", 12.505, 1,    7756.47,  -30.6,    1.0743, 2,    7752.13, -149.8,    1.0737, 3,    7666.01,   89.1,    1.0618
"BUSMVMAI708", 12.505, 1,    7756.47,  -30.6,    1.0743, 2,    7752.13, -149.8,    1.0737, 3,    7666.02,   89.1,    1.0618
"BUSMVMAI72", 12.505, 1,    7753.18,  -30.6,    1.0738, 2,    7752.39, -149.8,    1.0737, 3,    7664.86,   89.1,    1.0616
"BUSMVMAI73", 12.505, 1,    7751.93,  -30.6,    1.0737, 2,    7752.51, -149.8,    1.0738, 3,    7664.53,   89.1,    1.0616
"BUSMVMAI134", 12.505, 1,    7753.18,  -30.6,    1.0738, 2,    7752.39, -149.8,    1.0737, 3,    7664.86,   89.1,    1.0616
"BUSMVMAI900", 12.505, 3,    7667.05,   89.1,    1.0619, 0, 0, 0, 0, 0, 0, 0, 0
"BUSMVMAI904", 12.505, 3,    7669.13,   89.1,    1.0622, 0, 0, 0, 0, 0, 0, 0, 0
"BUSMVMAI75", 12.505, 1,    7751.32,  -30.6,    1.0736, 2,    7752.58, -149.8,    1.0738, 3,    7664.34,   89.1,    1.0615
"BUSMVMAI718", 12.505, 1,    7751.93,  -30.6,    1.0737, 2,     7752.5, -149.8,    1.0738, 3,    7664.53,   89.1,    1.0616
"BUSMVMAI899", 12.505, 3,    7667.04,   89.1,    1.0619, 0, 0, 0, 0, 0, 0, 0, 0
"BUSMVMAI902", 12.505, 3,    7667.01,   89.1,    1.0619, 0, 0, 0, 0, 0, 0, 0, 0
"BUSMVMAI901", 12.505, 3,    7666.99,   89.1,    1.0619, 0, 0, 0, 0, 0, 0, 0, 0
"BUSMVMAI903", 12.505, 3,    7666.94,   89.1,    1.0619, 0, 0, 0, 0, 0, 0, 0, 0
"BUSMVMAI905", 12.505, 3,     7666.9,   89.1,    1.0619, 0, 0, 0, 0, 0, 0, 0, 0
"BUSMVMAI907", 12.505, 3,    7666.94,   89.1,    1.0619, 0, 0, 0, 0, 0, 0, 0, 0
"BUSMVMAI906", 12.505, 3,    7666.89,   89.1,    1.0619, 0, 0, 0, 0, 0, 0, 0, 0
"BUSMVMAI946", 12.505, 3,    7666.89,   89.1,    1.0619, 0, 0, 0, 0, 0, 0, 0, 0
"BUSMVMAI74", 12.505, 1,    7751.32,  -30.6,    1.0736, 2,    7752.58, -149.8,    1.0738, 3,    7664.34,   89.1,    1.0615
"BUSMVMAI76", 12.505, 1,    7751.21,  -30.6,    1.0736, 2,    7752.65, -149.8,    1.0738, 3,    7664.29,   89.1,    1.0615
"BUSMVMAI77", 12.505, 1,    7750.97,  -30.7,    1.0735, 2,    7752.58, -149.8,    1.0738, 3,    7664.24,   89.1,    1.0615
"BUSMVMAI79", 12.505, 1,     7751.2,  -30.6,    1.0736, 2,    7752.66, -149.8,    1.0738, 3,    7664.29,   89.1,    1.0615
"BUSMVMAI81", 12.505, 1,    7750.96,  -30.6,    1.0735, 2,    7752.49, -149.8,    1.0738, 3,    7664.26,   89.1,    1.0615
"BUSMVMAI91", 12.505, 1,    7750.06,  -30.7,    1.0734, 2,    7752.66, -149.8,    1.0738, 3,    7663.95,   89.1,    1.0615
"BUSMVMAI78", 12.505, 1,    7751.02,  -30.7,    1.0735, 2,    7752.78, -149.8,    1.0738, 3,    7664.19,   89.1,    1.0615
"BUSMVMAI80", 12.505, 1,    7750.84,  -30.7,    1.0735, 2,     7752.9, -149.8,    1.0738, 3,     7664.1,   89.1,    1.0615
"BUSMVMAI908", 12.505, 1,    7750.72,  -30.7,    1.0735, 0, 0, 0, 0, 0, 0, 0, 0
"BUSMVMAI89", 12.505, 1,    7750.79,  -30.7,    1.0735, 2,    7752.93, -149.8,    1.0738, 3,    7664.05,   89.1,    1.0615
"BUSMVMAI949", 12.505, 3,    7666.94,   89.1,    1.0619, 0, 0, 0, 0, 0, 0, 0, 0
"BUSMVMAI82", 12.505, 1,    7750.95,  -30.6,    1.0735, 2,    7752.43, -149.8,    1.0737, 3,    7664.28,   89.1,    1.0615
"BUSMVMAI83", 12.505, 1,    7750.97,  -30.6,    1.0735, 2,    7752.43, -149.8,    1.0737, 3,    7664.25,   89.1,    1.0615
"BUSMVMAI86", 12.505, 1,    7750.98,  -30.6,    1.0735, 2,    7752.44, -149.8,    1.0737, 3,    7664.22,   89.1,    1.0615
"BUSMVMAI85", 12.505, 1,    7751.93,  -30.6,    1.0737, 2,    7752.46, -149.8,    1.0737, 3,    7664.58,   89.1,    1.0616
"BUSMVMAI84", 12.505, 1,    7751.88,  -30.6,    1.0737, 2,    7752.43, -149.8,    1.0737, 3,    7664.63,   89.1,    1.0616
"BUSMVMAI93", 12.505, 1,    7751.85,  -30.6,    1.0737, 2,    7752.42, -149.8,    1.0737, 3,    7664.66,   89.1,    1.0616
"BUSMVMAI2198", 12.505, 2,    7752.43, -149.8,    1.0737, 0, 0, 0, 0, 0, 0, 0, 0
"BUSMVMAI709", 12.505, 1,    7751.93,  -30.6,    1.0737, 2,     7752.5, -149.8,    1.0738, 3,    7664.54,   89.1,    1.0616
"BUSMVMAI88", 12.505, 1,    7751.01,  -30.6,    1.0735, 2,    7752.44, -149.8,    1.0737, 3,     7664.2,   89.1,    1.0615
"BUSMVMAI87", 12.505, 1,    7751.03,  -30.6,    1.0735, 2,    7752.44, -149.8,    1.0737, 3,    7664.17,   89.1,    1.0615
"BUSMVMAI99", 12.505, 1,    7751.03,  -30.7,    1.0736, 2,    7752.45, -149.8,    1.0737, 3,    7664.16,   89.1,    1.0615
"BUSMVMAI722", 12.505, 1,    7751.03,  -30.6,    1.0735, 2,    7752.44, -149.8,    1.0737, 3,    7664.17,   89.1,    1.0615
"BUSMVMAI909", 12.505, 1,    7750.61,  -30.7,    1.0735, 0, 0, 0, 0, 0, 0, 0, 0
"BUSMVMAI90", 12.505, 1,     7750.8,  -30.7,    1.0735, 2,    7752.92, -149.8,    1.0738, 3,    7664.02,   89.1,    1.0615
"BUSMVMAI102", 12.505, 1,    7750.81,  -30.7,    1.0735, 2,    7752.91, -149.8,    1.0738, 3,    7663.99,   89.1,    1.0615
"BUSMVMAI92", 12.505, 1,    7749.27,  -30.7,    1.0733, 2,    7752.73, -149.8,    1.0738, 3,     7663.7,   89.1,    1.0615
"BUSMVMAI132", 12.505, 1,    7750.06,  -30.7,    1.0734, 2,    7752.66, -149.8,    1.0738, 3,    7663.95,   89.1,    1.0615
"BUSMVMAI98", 12.505, 1,    7749.27,  -30.7,    1.0733, 2,    7752.73, -149.8,    1.0738, 3,     7663.7,   89.1,    1.0615
"BUSMVMAI100", 12.505, 1,    7748.27,  -30.7,    1.0732, 2,    7752.91, -149.8,    1.0738, 3,    7663.36,   89.1,    1.0614
"BUSMVMAI723", 12.505, 1,    7749.27,  -30.7,    1.0733, 2,    7752.73, -149.8,    1.0738, 3,    7663.71,   89.1,    1.0615
"BUSMVMAI96", 12.505, 1,    7751.83,  -30.6,    1.0737, 2,    7752.41, -149.8,    1.0737, 3,    7664.69,   89.1,    1.0616
"BUSMVMAI916", 12.505, 1,    7751.85,  -30.6,    1.0737, 0, 0, 0, 0, 0, 0, 0, 0
"BUSMVMAI95", 12.505, 1,    7749.27,  -30.7,    1.0733, 2,    7752.67, -149.8,    1.0738, 3,    7663.71,   89.1,    1.0615
"BUSMVMAI94", 12.505, 1,    7749.25,  -30.7,    1.0733, 2,    7752.61, -149.8,    1.0738, 3,    7663.73,   89.1,    1.0615
"BUSMVMAI112", 12.505, 1,    7749.25,  -30.7,    1.0733, 2,    7752.61, -149.8,    1.0738, 3,    7663.73,   89.1,    1.0615
"BUSMVMAI126", 12.505, 1,    7749.28,  -30.7,    1.0733, 2,    7752.67, -149.8,    1.0738, 3,    7663.71,   89.1,    1.0615
"BUSMVMAI97", 12.505, 1,     7751.8,  -30.6,    1.0737, 2,    7752.39, -149.8,    1.0737, 3,    7664.74,   89.1,    1.0616
"BUSMVMAI711", 12.505, 1,    7751.83,  -30.6,    1.0737, 2,    7752.41, -149.8,    1.0737, 3,    7664.69,   89.1,    1.0616
"BUSMVMAI915", 12.505, 1,    7751.79,  -30.6,    1.0737, 0, 0, 0, 0, 0, 0, 0, 0
...
"BUSLVMAI1", 0.20785, 1,    127.482,   89.1,    1.0624, 2,    127.498,  -90.9,    1.0625, 0, 0, 0, 0
"BUSLVMAI2", 0.20785, 1,    127.801,   89.4,     1.065, 2,    127.814,  -90.6,    1.0651, 0, 0, 0, 0
"BUSLVMAI3", 0.20785, 1,    127.457,   89.1,    1.0621, 2,    127.473,  -90.9,    1.0623, 0, 0, 0, 0
"BUSLVMAI4", 0.20785, 1,    128.847,  -30.7,    1.0737, 2,    128.936,  149.3,    1.0745, 0, 0, 0, 0
"BUSLVMAI5", 0.20785, 1,    128.467, -149.7,    1.0706, 2,    128.513,   30.3,    1.0709, 0, 0, 0, 0
"BUSLVMAI6", 0.20785, 1,    127.279,   89.0,    1.0607, 2,    127.294,  -91.0,    1.0608, 0, 0, 0, 0
"BUSLVMAI7", 0.20785, 1,    127.487,   89.1,    1.0624, 2,    127.501,  -90.9,    1.0625, 0, 0, 0, 0
"BUSLVMAI8", 0.20785, 1,    126.746,   88.9,    1.0562, 2,    126.769,  -91.1,    1.0564, 0, 0, 0, 0
"BUSLVMAI9", 0.20785, 1,    126.814,   88.8,    1.0568, 2,    126.827,  -91.2,    1.0569, 0, 0, 0, 0
"BUSLVMAI10", 0.20785, 1,    126.898,   88.8,    1.0575, 2,    126.911,  -91.2,    1.0576, 0, 0, 0, 0
"BUSLVMAI11", 0.20785, 1,     128.75, -149.7,    1.0729, 2,    128.763,   30.3,     1.073, 0, 0, 0, 0
"BUSLVMAI12", 0.20785, 1,    128.653, -149.8,    1.0721, 2,    128.669,   30.2,    1.0722, 0, 0, 0, 0
"BUSLVMAI13", 0.20785, 1,    129.035,  -30.6,    1.0753, 2,    129.051,  149.4,    1.0754, 0, 0, 0, 0
"BUSLVMAI14", 0.20785, 1,    129.241,  -30.6,     1.077, 2,    129.257,  149.4,    1.0771, 0, 0, 0, 0
"BUSLVMAI15", 0.20785, 1,    129.142,  -30.5,    1.0762, 2,    129.156,  149.5,    1.0763, 0, 0, 0, 0
"BUSLVMAI16", 0.20785, 1,    127.461,   89.1,    1.0622, 2,    127.479,  -90.9,    1.0623, 0, 0, 0, 0
"BUSLVMAI17", 0.20785, 1,    125.993,   88.6,    1.0499, 2,    126.032,  -91.4,    1.0503, 0, 0, 0, 0
"BUSLVMAI18", 0.20785, 1,    127.354,   89.1,    1.0613, 2,     127.37,  -90.9,    1.0614, 0, 0, 0, 0
"BUSLVMAI19", 0.20785, 1,    127.649,   89.3,    1.0637, 2,    127.662,  -90.7,    1.0638, 0, 0, 0, 0
"BUSLVMAI20", 0.20785, 1,    128.381, -149.8,    1.0698, 2,    128.418,   30.2,    1.0701, 0, 0, 0, 0
"BUSLVMAI21", 0.20785, 1,    127.483,   89.1,    1.0624, 2,    127.498,  -90.9,    1.0625, 0, 0, 0, 0
"BUSLVMAI22", 0.20785, 1,    129.011,  -30.6,    1.0751, 2,    129.089,  149.4,    1.0757, 0, 0, 0, 0
"BUSLVMAI23", 0.20785, 1,    127.444,   89.1,     1.062, 2,     127.46,  -90.9,    1.0622, 0, 0, 0, 0
"BUSLVMAI24", 0.20785, 1,    127.453,   89.1,    1.0621, 2,    127.469,  -90.9,    1.0622, 0, 0, 0, 0
"BUSLVMAI25", 0.20785, 1,    127.395,   89.1,    1.0616, 2,    127.411,  -90.9,    1.0618, 0, 0, 0, 0
"BUSLVMAI26", 0.20785, 1,    128.661, -149.8,    1.0722, 2,    128.676,   30.2,    1.0723, 0, 0, 0, 0
"BUSLVMAI27", 0.20785, 1,    128.761, -149.7,     1.073, 2,    128.778,   30.3,    1.0731, 0, 0, 0, 0
"BUSLVMAI28", 0.20785, 1,    127.355,   89.1,    1.0613, 2,     127.37,  -90.9,    1.0614, 0, 0, 0, 0
"BUSLVMAI29", 0.20785, 1,    126.681,   88.7,    1.0557, 2,    126.697,  -91.3,    1.0558, 0, 0, 0, 0
"BUSLVMAI30", 0.20785, 1,     128.68, -149.7,    1.0723, 2,    128.695,   30.3,    1.0725, 0, 0, 0, 0
"BUSLVMAI31", 0.20785, 1,    127.459,   89.1,    1.0622, 2,    127.475,  -90.9,    1.0623, 0, 0, 0, 0
"BUSLVMAI32", 0.20785, 1,    128.706,  -30.6,    1.0725, 2,    128.719,  149.4,    1.0727, 0, 0, 0, 0
"BUSLVMAI33", 0.20785, 1,    127.314,   89.1,     1.061, 2,    127.327,  -91.0,    1.0611, 0, 0, 0, 0
"BUSLVMAI34", 0.20785, 1,     125.29,   88.6,    1.0441, 2,    125.378,  -91.4,    1.0448, 0, 0, 0, 0
"BUSLVMAI35", 0.20785, 1,    127.397,   89.1,    1.0616, 2,    127.411,  -90.9,    1.0618, 0, 0, 0, 0
"BUSLVMAI36", 0.20785, 1,    127.395,   89.1,    1.0616, 2,    127.409,  -90.9,    1.0617, 0, 0, 0, 0
"BUSLVMAI37", 0.20785, 1,    127.392,   89.1,    1.0616, 2,    127.408,  -90.9,    1.0617, 0, 0, 0, 0
"BUSLVMAI38", 0.20785, 1,    125.877, -150.4,     1.049, 2,    125.895,   29.6,    1.0491, 0, 0, 0, 0
"BUSLVMAI39", 0.20785, 1,    128.805, -149.7,    1.0734, 2,    128.819,   30.3,    1.0735, 0, 0, 0, 0
"BUSLVMAI40", 0.20785, 1,    127.066,   88.9,    1.0589, 2,    127.106,  -91.1,    1.0592, 0, 0, 0, 0
"BUSLVMAI41", 0.20785, 1,    128.785,  -30.6,    1.0732, 2,    128.801,  149.4,    1.0733, 0, 0, 0, 0
"BUSLVMAI42", 0.20785, 1,    128.829,  -30.6,    1.0736, 2,    128.845,  149.4,    1.0737, 0, 0, 0, 0
"BUSLVMAI43", 0.20785, 1,    128.826,  -30.6,    1.0735, 2,    128.841,  149.4,    1.0737, 0, 0, 0, 0
"BUSLVMAI44", 0.20785, 1,    127.234,   89.1,    1.0603, 2,    127.264,  -90.9,    1.0605, 0, 0, 0, 0
"BUSLVMAI45", 0.20785, 1,    127.168,   89.1,    1.0597, 2,    127.182,  -90.9,    1.0599, 0, 0, 0, 0
"BUSLVMAI46", 0.20785, 1,    127.352,   89.2,    1.0613, 2,    127.367,  -90.9,    1.0614, 0, 0, 0, 0
"BUSLVMAI47", 0.20785, 1,      127.4,   89.1,    1.0617, 2,    127.414,  -90.9,    1.0618, 0, 0, 0, 0
"BUSLVMAI48", 0.20785, 1,    126.879,   88.9,    1.0573, 2,    126.905,  -91.1,    1.0575, 0, 0, 0, 0
"BUSLVMAI49", 0.20785, 1,      128.8,  -30.6,    1.0733, 2,    128.815,  149.4,    1.0735, 0, 0, 0, 0
"BUSLVMAI50", 0.20785, 1,    127.072, -150.3,    1.0589, 2,    127.183,   29.7,    1.0599, 0, 0, 0, 0
"BUSLVMAI51", 0.20785, 1,    128.056,  -30.9,    1.0671, 2,    128.073,  149.1,    1.0673, 0, 0, 0, 0
"BUSLVMAI52", 0.20785, 1,    127.408,   89.1,    1.0617, 2,    127.421,  -90.9,    1.0618, 0, 0, 0, 0
"BUSLVMAI53", 0.20785, 1,    127.391,   89.1,    1.0616, 2,    127.406,  -90.9,    1.0617, 0, 0, 0, 0
"BUSLVMAI54", 0.20785, 1,    126.781,   88.9,    1.0565, 2,    126.797,  -91.1,    1.0566, 0, 0, 0, 0
"BUSLVMAI55", 0.20785, 1,    128.839,  -30.6,    1.0737, 2,    128.855,  149.4,    1.0738, 0, 0, 0, 0
"BUSLVMAI56", 0.20785, 1,    127.476,   89.3,    1.0623, 2,    127.489,  -90.7,    1.0624, 0, 0, 0, 0
"BUSLVMAI57", 0.20785, 1,    127.335,   89.2,    1.0611, 2,    127.351,  -90.9,    1.0613, 0, 0, 0, 0
"BUSLVMAI58", 0.20785, 1,    127.406,   89.1,    1.0617, 2,     127.42,  -90.9,    1.0618, 0, 0, 0, 0
"BUSLVMAI59", 0.20785, 1,      128.8,  -30.6,    1.0733, 2,    128.815,  149.4,    1.0735, 0, 0, 0, 0
"BUSLVMAI60", 0.20785, 1,    128.718,  -30.7,    1.0726, 2,    128.731,  149.3,    1.0728, 0, 0, 0, 0
"BUSLVMAI61", 0.20785, 1,    127.288,  -31.3,    1.0607, 2,    127.305,  148.7,    1.0609, 0, 0, 0, 0
"BUSLVMAI62", 0.20785, 1,    128.705, -149.8,    1.0725, 2,     128.72,   30.2,    1.0727, 0, 0, 0, 0
"BUSLVMAI63", 0.20785, 1,    128.417,  -30.7,    1.0701, 2,    128.438,  149.3,    1.0703, 0, 0, 0, 0
"BUSLVMAI64", 0.20785, 1,    128.721, -149.8,    1.0727, 2,    128.734,   30.2,    1.0728, 0, 0, 0, 0
"BUSLVMAI65", 0.20785, 1,    128.784,  -30.6,    1.0732, 2,    128.798,  149.3,    1.0733, 0, 0, 0, 0
"BUSLVMAI66", 0.20785, 1,    127.396,   89.1,    1.0616, 2,     127.41,  -90.9,    1.0618, 0, 0, 0, 0
"BUSLVMAI67", 0.20785, 1,    128.317,  -30.8,    1.0693, 2,    128.334,  149.2,    1.0694, 0, 0, 0, 0
"BUSLVMAI68", 0.20785, 1,    128.279,  -30.9,     1.069, 2,    128.292,  149.1,    1.0691, 0, 0, 0, 0
"BUSLVMAI69", 0.20785, 1,      127.4,   89.1,    1.0617, 2,    127.413,  -90.9,    1.0618, 0, 0, 0, 0
"BUSLVMAI70", 0.20785, 1,    127.089,   89.0,    1.0591, 2,    127.111,  -91.0,    1.0593, 0, 0, 0, 0
"BUSLVMAI71", 0.20785, 1,    128.713,  -30.6,    1.0726, 2,    128.727,  149.4,    1.0727, 0, 0, 0, 0
"BUSLVMAI72", 0.20785, 1,    128.681,  -30.7,    1.0723, 2,    128.695,  149.3,    1.0725, 0, 0, 0, 0
"BUSLVMAI73", 0.20785, 1,     128.85,  -30.6,    1.0738, 2,    128.863,  149.4,    1.0739, 0, 0, 0, 0
"BUSLVMAI74", 0.20785, 1,    128.799,  -30.6,    1.0733, 2,    128.815,  149.4,    1.0735, 0, 0, 0, 0
"BUSLVMAI75", 0.20785, 1,    128.699, -149.8,    1.0725, 2,    128.714,   30.2,    1.0726, 0, 0, 0, 0
"BUSLVMAI76", 0.20785, 1,    127.396,   89.1,    1.0616, 2,    127.409,  -90.9,    1.0617, 0, 0, 0, 0
"BUSLVMAI77", 0.20785, 1,    128.037,  -30.9,     1.067, 2,    128.051,  149.1,    1.0671, 0, 0, 0, 0
"BUSLVMAI78", 0.20785, 1,    128.822,  -30.6,    1.0735, 2,    128.835,  149.4,    1.0736, 0, 0, 0, 0
"BUSLVMAI79", 0.20785, 1,    127.342,   89.2,    1.0612, 2,    127.356,  -90.9,    1.0613, 0, 0, 0, 0
"BUSLVMAI80", 0.20785, 1,    126.183,   88.6,    1.0515, 2,    126.205,  -91.4,    1.0517, 0, 0, 0, 0
"BUSLVMAI81", 0.20785, 1,    127.395,   89.1,    1.0616, 2,    127.409,  -90.9,    1.0617, 0, 0, 0, 0
"BUSLVMAI82", 0.20785, 1,    127.632,   89.2,    1.0636, 2,    127.648,  -90.8,    1.0637, 0, 0, 0, 0
"BUSLVMAI83", 0.20785, 1,    128.613,  -30.7,    1.0718, 2,    128.632,  149.3,    1.0719, 0, 0, 0, 0
"BUSLVMAI84", 0.20785, 1,    127.621,   89.3,    1.0635, 2,    127.635,  -90.7,    1.0636, 0, 0, 0, 0
"BUSLVMAI85", 0.20785, 1,      128.9, -149.7,    1.0742, 2,    128.925,   30.3,    1.0744, 0, 0, 0, 0
"BUSLVMAI86", 0.20785, 1,    128.551,  -30.7,    1.0713, 2,    128.592,  149.3,    1.0716, 0, 0, 0, 0
"BUSLVMAI87", 0.20785, 1,    129.009,  -30.5,    1.0751, 2,    129.043,  149.5,    1.0754, 0, 0, 0, 0
"BUSLVMAI88", 0.20785, 1,    127.433,   89.1,    1.0619, 2,    127.446,  -90.9,    1.0621, 0, 0, 0, 0
"BUSLVMAI89", 0.20785, 1,    127.396,   89.1,    1.0616, 2,    127.409,  -90.9,    1.0617, 0, 0, 0, 0
"BUSLVMAI90", 0.20785, 1,    126.982,   89.0,    1.0582, 2,    126.998,  -91.0,    1.0583, 0, 0, 0, 0
"BUSLVMAI91", 0.20785, 1,    127.408,   89.1,    1.0617, 2,    127.423,  -90.9,    1.0619, 0, 0, 0, 0
"BUSLVMAI92", 0.20785, 1,    128.385,  -30.8,    1.0699, 2,    128.403,  149.2,      1.07, 0, 0, 0, 0
"BUSLVMAI93", 0.20785, 1,    127.284,   89.2,    1.0607, 2,      127.3,  -90.8,    1.0608, 0, 0, 0, 0
"BUSLVMAI94", 0.20785, 1,    127.518,   89.2,    1.0626, 2,    127.532,  -90.8,    1.0628, 0, 0, 0, 0
"BUSLVMAI95", 0.20785, 1,    127.335,   89.2,    1.0611, 2,    127.351,  -90.9,    1.0613, 0, 0, 0, 0
"BUSLVMAI96", 0.20785, 1,     127.39,   89.1,    1.0616, 2,    127.404,  -90.9,    1.0617, 0, 0, 0, 0
"BUSLVMAI97", 0.20785, 1,    128.809, -149.8,    1.0734, 2,    128.825,   30.2,    1.0735, 0, 0, 0, 0
"BUSLVMAI98", 0.20785, 1,    128.809, -149.8,    1.0734, 2,    128.825,   30.2,    1.0735, 0, 0, 0, 0
"BUSLVMAI99", 0.20785, 1,      127.4,   89.1,    1.0617, 2,    127.414,  -90.9,    1.0618, 0, 0, 0, 0
"BUSLVMAI100", 0.20785, 1,    127.442,   89.1,     1.062, 2,    127.456,  -90.9,    1.0621, 0, 0, 0, 0
"BUSLVMAI101", 0.20785, 1,    127.333,   89.2,    1.0611, 2,    127.349,  -90.9,    1.0612, 0, 0, 0, 0
"BUSLVMAI102", 0.20785, 1,    127.393,   89.1,    1.0616, 2,    127.409,  -90.9,    1.0617, 0, 0, 0, 0
"BUSLVMAI103", 0.20785, 1,    127.301,   89.1,    1.0608, 2,    127.317,  -90.9,     1.061, 0, 0, 0, 0
"BUSLVMAI104", 0.20785, 1,    127.173,   89.1,    1.0598, 2,    127.187,  -90.9,    1.0599, 0, 0, 0, 0
"BUSLVMAI105", 0.20785, 1,    127.181,   89.1,    1.0598, 2,    127.195,  -90.9,      1.06, 0, 0, 0, 0
"BUSLVMAI106", 0.20785, 1,    128.765,  -30.7,     1.073, 2,    128.778,  149.3,    1.0731, 0, 0, 0, 0
"BUSLVMAI107", 0.20785, 1,      127.4,   89.1,    1.0617, 2,    127.414,  -90.9,    1.0618, 0, 0, 0, 0
"BUSLVMAI108", 0.20785, 1,    127.345,   89.2,    1.0612, 2,    127.359,  -90.9,    1.0613, 0, 0, 0, 0
"BUSLVMAI109", 0.20785, 1,    128.544,  -30.7,    1.0712, 2,    128.588,  149.3,    1.0716, 0, 0, 0, 0
"BUSLVMAI110", 0.20785, 1,    128.574,  -30.7,    1.0714, 2,    128.592,  149.3,    1.0716, 0, 0, 0, 0
"BUSLVMAI111", 0.20785, 1,    128.581,  -30.7,    1.0715, 2,    128.597,  149.3,    1.0716, 0, 0, 0, 0
"BUSLVMAI112", 0.20785, 1,    128.685,  -30.7,    1.0724, 2,    128.701,  149.3,    1.0725, 0, 0, 0, 0
"BUSLVMAI113", 0.20785, 1,    128.827, -149.8,    1.0736, 2,    128.842,   30.2,    1.0737, 0, 0, 0, 0
"BUSLVMAI114", 0.20785, 1,    126.992,  -31.1,    1.0583, 2,    127.008,  148.9,    1.0584, 0, 0, 0, 0
"BUSLVMAI115", 0.20785, 1,    128.582,  -30.7,    1.0715, 2,    128.595,  149.3,    1.0716, 0, 0, 0, 0
"BUSLVMAI116", 0.20785, 1,    127.311,   89.2,    1.0609, 2,    127.324,  -90.8,     1.061, 0, 0, 0, 0
"BUSLVMAI117", 0.20785, 1,    128.557,  -30.7,    1.0713, 2,    128.578,  149.3,    1.0715, 0, 0, 0, 0
"BUSLVMAI118", 0.20785, 1,    129.172,  -30.4,    1.0764, 2,    129.188,  149.6,    1.0766, 0, 0, 0, 0
"BUSLVMAI119", 0.20785, 1,    127.112,   89.0,    1.0593, 2,    127.125,  -91.0,    1.0594, 0, 0, 0, 0
"BUSLVMAI120", 0.20785, 1,     128.58,  -30.7,    1.0715, 2,    128.595,  149.3,    1.0716, 0, 0, 0, 0
"BUSLVMAI121", 0.20785, 1,    128.836, -149.8,    1.0736, 2,    128.852,   30.2,    1.0738, 0, 0, 0, 0
"BUSLVMAI122", 0.20785, 1,      127.3,   89.2,    1.0608, 2,    127.316,  -90.8,     1.061, 0, 0, 0, 0
"BUSLVMAI123", 0.20785, 1,    128.823, -149.8,    1.0735, 2,    128.837,   30.2,    1.0736, 0, 0, 0, 0
"BUSLVMAI124", 0.20785, 1,    127.061,   89.1,    1.0588, 2,    127.101,  -90.9,    1.0592, 0, 0, 0, 0
"BUSLVMAI125", 0.20785, 1,    126.417,   88.9,    1.0535, 2,    126.435,  -91.1,    1.0536, 0, 0, 0, 0
"BUSLVMAI126", 0.20785, 1,    128.833, -149.8,    1.0736, 2,    128.847,   30.2,    1.0737, 0, 0, 0, 0
"BUSLVMAI127", 0.20785, 1,    127.304,   89.2,    1.0609, 2,    127.318,  -90.8,     1.061, 0, 0, 0, 0
"BUSLVMAI128", 0.20785, 1,    129.241, -149.4,     1.077, 2,    129.257,   30.6,    1.0771, 0, 0, 0, 0
"BUSLVMAI129", 0.20785, 1,     128.58,  -30.7,    1.0715, 2,    128.594,  149.3,    1.0716, 0, 0, 0, 0
"BUSLVMAI130", 0.20785, 1,    128.718,  -30.7,    1.0726, 2,    128.734,  149.3,    1.0728, 0, 0, 0, 0
"BUSLVMAI131", 0.20785, 1,    127.604,  -31.0,    1.0634, 2,    127.727,  149.0,    1.0644, 0, 0, 0, 0
"BUSLVMAI132", 0.20785, 1,    128.577,  -30.7,    1.0715, 2,     128.59,  149.3,    1.0716, 0, 0, 0, 0
"BUSLVMAI133", 0.20785, 1,    127.317,   89.2,     1.061, 2,    127.335,  -90.8,    1.0611, 0, 0, 0, 0
"BUSLVMAI134", 0.20785, 1,    127.134,   89.1,    1.0594, 2,     127.15,  -90.9,    1.0596, 0, 0, 0, 0
"BUSLVMAI135", 0.20785, 1,     127.22,   89.1,    1.0602, 2,    127.236,  -90.9,    1.0603, 0, 0, 0, 0
"BUSLVMAI136", 0.20785, 1,    128.336,  -30.8,    1.0695, 2,    128.375,  149.2,    1.0698, 0, 0, 0, 0
"BUSLVMAI137", 0.20785, 1,    129.013, -149.6,    1.0751, 2,    129.027,   30.4,    1.0752, 0, 0, 0, 0
"BUSLVMAI138", 0.20785, 1,    128.572, -149.9,    1.0714, 2,    128.593,   30.1,    1.0716, 0, 0, 0, 0
"BUSLVMAI139", 0.20785, 1,    128.085, -150.1,    1.0674, 2,    128.102,   29.9,    1.0675, 0, 0, 0, 0
"BUSLVMAI140", 0.20785, 1,    128.572,  -30.7,    1.0714, 2,    128.588,  149.3,    1.0716, 0, 0, 0, 0
"BUSLVMAI141", 0.20785, 1,    128.833, -149.8,    1.0736, 2,    128.848,   30.2,    1.0737, 0, 0, 0, 0
"BUSLVMAI142", 0.20785, 1,     128.53, -149.9,    1.0711, 2,    128.545,   30.1,    1.0712, 0, 0, 0, 0
"BUSLVMAI143", 0.20785, 1,     128.74, -149.8,    1.0728, 2,    128.756,   30.2,     1.073, 0, 0, 0, 0
"BUSLVMAI144", 0.20785, 1,    127.302,   89.2,    1.0609, 2,    127.318,  -90.8,     1.061, 0, 0, 0, 0
"BUSLVMAI145", 0.20785, 1,    128.619,  -30.7,    1.0718, 2,    128.634,  149.3,     1.072, 0, 0, 0, 0
"BUSLVMAI146", 0.20785, 1,    128.814, -149.8,    1.0734, 2,    128.828,   30.2,    1.0736, 0, 0, 0, 0
"BUSLVMAI147", 0.20785, 1,    128.455,  -30.5,    1.0705, 2,    128.472,  149.5,    1.0706, 0, 0, 0, 0
"BUSLVMAI148", 0.20785, 1,     127.19,   89.1,    1.0599, 2,    127.205,  -90.9,      1.06, 0, 0, 0, 0
"BUSLVMAI149", 0.20785, 1,    128.856, -149.7,    1.0738, 2,    128.869,   30.3,    1.0739, 0, 0, 0, 0
"BUSLVMAI150", 0.20785, 1,    127.774,  -31.0,    1.0648, 2,    127.795,  148.9,     1.065, 0, 0, 0, 0
"BUSLVMAI151", 0.20785, 1,    128.255, -149.8,    1.0688, 2,    128.268,   30.2,    1.0689, 0, 0, 0, 0
"BUSLVMAI152", 0.20785, 1,    128.569,  -30.7,    1.0714, 2,    128.585,  149.3,    1.0715, 0, 0, 0, 0
"BUSLVMAI153", 0.20785, 1,    126.603,   88.9,     1.055, 2,    126.619,  -91.1,    1.0552, 0, 0, 0, 0
"BUSLVMAI154", 0.20785, 1,    127.309,   89.2,    1.0609, 2,    127.325,  -90.8,     1.061, 0, 0, 0, 0
"BUSLVMAI155", 0.20785, 1,    128.525,  -30.7,     1.071, 2,     128.54,  149.3,    1.0712, 0, 0, 0, 0
"BUSLVMAI156", 0.20785, 1,    128.585,  -30.7,    1.0715, 2,    128.599,  149.3,    1.0717, 0, 0, 0, 0
"BUSLVMAI157", 0.20785, 1,    127.979,  -30.9,    1.0665, 2,    127.995,  149.1,    1.0666, 0, 0, 0, 0
"BUSLVMAI158", 0.20785, 1,    128.792, -149.8,    1.0733, 2,    128.805,   30.2,    1.0734, 0, 0, 0, 0
"BUSLVMAI159", 0.20785, 1,    128.831, -149.8,    1.0736, 2,    128.844,   30.2,    1.0737, 0, 0, 0, 0
"BUSLVMAI160", 0.20785, 1,    128.414,  -30.6,    1.0701, 2,    128.433,  149.4,    1.0703, 0, 0, 0, 0
"BUSLVMAI161", 0.20785, 1,    128.577,  -30.7,    1.0715, 2,      128.6,  149.3,    1.0717, 0, 0, 0, 0
"BUSLVMAI162", 0.20785, 1,    128.335,  -30.8,    1.0695, 2,    128.351,  149.2,    1.0696, 0, 0, 0, 0
"BUSLVMAI163", 0.20785, 1,    128.569,  -30.7,    1.0714, 2,    128.585,  149.3,    1.0715, 0, 0, 0, 0
"BUSLVMAI164", 0.20785, 1,    128.742,  -30.7,    1.0729, 2,    128.755,  149.3,     1.073, 0, 0, 0, 0
"BUSLVMAI165", 0.20785, 1,    127.846,  -30.9,    1.0654, 2,    127.893,  149.1,    1.0658, 0, 0, 0, 0
"BUSLVMAI166", 0.20785, 1,    128.371,  -30.8,    1.0698, 2,    128.397,  149.2,      1.07, 0, 0, 0, 0
"BUSLVMAI167", 0.20785, 1,    127.402,   89.2,    1.0617, 2,    127.429,  -90.8,    1.0619, 0, 0, 0, 0
"BUSLVMAI168", 0.20785, 1,    127.246,   89.2,    1.0604, 2,     127.26,  -90.9,    1.0605, 0, 0, 0, 0
"BUSLVMAI169", 0.20785, 1,    126.305,  -31.1,    1.0525, 2,    126.323,  148.9,    1.0527, 0, 0, 0, 0
"BUSLVMAI170", 0.20785, 1,    128.574,  -30.7,    1.0714, 2,    128.588,  149.3,    1.0716, 0, 0, 0, 0
"BUSLVMAI171", 0.20785, 1,    128.035,  -30.8,     1.067, 2,    128.119,  149.2,    1.0677, 0, 0, 0, 0
"BUSLVMAI172", 0.20785, 1,    127.577,   89.3,    1.0631, 2,    127.591,  -90.7,    1.0633, 0, 0, 0, 0
"BUSLVMAI173", 0.20785, 1,    127.299,   89.2,    1.0608, 2,    127.314,  -90.8,     1.061, 0, 0, 0, 0
"BUSLVMAI174", 0.20785, 1,    128.601,  -30.7,    1.0717, 2,    128.623,  149.3,    1.0719, 0, 0, 0, 0
"BUSLVMAI175", 0.20785, 1,    127.911,  -31.0,    1.0659, 2,    127.926,  149.0,     1.066, 0, 0, 0, 0
"BUSLVMAI176", 0.20785, 1,     127.24,   89.1,    1.0603, 2,    127.253,  -90.9,    1.0604, 0, 0, 0, 0
"BUSLVMAI177", 0.20785, 1,     127.37,   89.2,    1.0614, 2,    127.383,  -90.8,    1.0615, 0, 0, 0, 0
"BUSLVMAI178", 0.20785, 1,    128.796, -149.8,    1.0733, 2,     128.81,   30.2,    1.0734, 0, 0, 0, 0
"BUSLVMAI179", 0.20785, 1,    128.555, -149.9,    1.0713, 2,    128.568,   30.1,    1.0714, 0, 0, 0, 0
"BUSLVMAI180", 0.20785, 1,    128.585,  -30.7,    1.0715, 2,    128.598,  149.3,    1.0717, 0, 0, 0, 0
"BUSLVMAI181", 0.20785, 1,    128.572,  -30.7,    1.0714, 2,    128.587,  149.3,    1.0716, 0, 0, 0, 0
"BUSLVMAI182", 0.20785, 1,    128.361,  -30.7,    1.0697, 2,    128.431,  149.3,    1.0703, 0, 0, 0, 0
"BUSLVMAI183", 0.20785, 1,    127.166,   89.1,    1.0597, 2,     127.18,  -90.9,    1.0598, 0, 0, 0, 0
"BUSLVMAI184", 0.20785, 1,    128.718,  -30.7,    1.0727, 2,    128.731,  149.3,    1.0728, 0, 0, 0, 0
"BUSLVMAI185", 0.20785, 1,    128.653, -149.8,    1.0721, 2,    128.666,   30.2,    1.0722, 0, 0, 0, 0
"BUSLVMAI186", 0.20785, 1,    127.315,   89.2,     1.061, 2,     127.33,  -90.8,    1.0611, 0, 0, 0, 0
"BUSLVMAI187", 0.20785, 1,     127.38,   89.2,    1.0615, 2,    127.393,  -90.8,    1.0616, 0, 0, 0, 0
"BUSLVMAI188", 0.20785, 1,     128.82, -149.8,    1.0735, 2,    128.836,   30.2,    1.0736, 0, 0, 0, 0
"BUSLVMAI189", 0.20785, 1,     128.58,  -30.7,    1.0715, 2,    128.597,  149.3,    1.0716, 0, 0, 0, 0
"BUSLVMAI190", 0.20785, 1,    128.824, -149.8,    1.0735, 2,     128.84,   30.2,    1.0737, 0, 0, 0, 0
"BUSLVMAI191", 0.20785, 1,     127.31,   89.2,    1.0609, 2,    127.325,  -90.8,     1.061, 0, 0, 0, 0
"BUSLVMAI192", 0.20785, 1,    128.564,  -30.7,    1.0714, 2,     128.58,  149.3,    1.0715, 0, 0, 0, 0
"BUSLVMAI193", 0.20785, 1,    128.575,  -30.7,    1.0715, 2,    128.591,  149.3,    1.0716, 0, 0, 0, 0
"BUSLVMAI194", 0.20785, 1,    127.222,   89.1,    1.0602, 2,    127.237,  -90.9,    1.0603, 0, 0, 0, 0
"BUSLVMAI195", 0.20785, 1,    127.312,   89.2,    1.0609, 2,    127.327,  -90.8,    1.0611, 0, 0, 0, 0
"BUSLVMAI196", 0.20785, 1,    128.824, -149.8,    1.0735, 2,     128.84,   30.2,    1.0737, 0, 0, 0, 0
"BUSLVMAI197", 0.20785, 1,    128.607, -149.9,    1.0717, 2,    128.621,   30.1,    1.0718, 0, 0, 0, 0
"BUSLVMAI198", 0.20785, 1,    128.827, -149.7,    1.0736, 2,    128.843,   30.2,    1.0737, 0, 0, 0, 0
"BUSLVMAI199", 0.20785, 1,    128.827, -149.7,    1.0736, 2,    128.843,   30.2,    1.0737, 0, 0, 0, 0
"BUSLVMAI200", 0.20785, 1,    128.565,  -30.7,    1.0714, 2,    128.581,  149.3,    1.0715, 0, 0, 0, 0
...
